############################################################
##                 ESC : Kinetic Weapons                  ##
############################################################

# - Advanced Gauss Cannon				S/M/L
# - Strike Cannon						S/M/L
# - Improved Stromfire Autocannon		S/M/L
# - Shredder Autocannon					S/M/L
# - Improved Kinetic Artillery			L
# - Skypiercer Artillery				L
# - Improved Giga-cannon				X
# - The Grand Cannon					X
# - Relativistic Kinetic Kill Vehicle	Titanic + Juggernaut
# - Hailstorm Autocannon				X
# - Firestorm Autocannon				X
# - Tempest Autocannon					Titanic + Juggernaut
# - Juggernaut Artillery				M (Juggernaut only)
# - Improved Juggernaut Artillery		M (Juggernaut only)
# - Ferromagnetic Liquid Cannon			X
# - Imp. Ferromagnetic Liquid Cannon	X
# - MagnetoHydroDynamic Cannon			Titanic + Juggernaut

@ESC_WEAPON_mass_driver_hull_damage = 1.0
@ESC_WEAPON_mass_driver_armor_damage = 0.5
@ESC_WEAPON_mass_driver_armor_penetration = 0.0
@ESC_WEAPON_mass_driver_shield_damage = 1.5
@ESC_WEAPON_mass_driver_shield_penetration = 0.0

@ESC_WEAPON_autocannon_hull_damage = 1.25
@ESC_WEAPON_autocannon_armor_damage = 0.25
@ESC_WEAPON_autocannon_xl_armor_damage = 0.5
@ESC_WEAPON_autocannon_armor_penetration = 0.0
@ESC_WEAPON_autocannon_shield_damage = 1.5
@ESC_WEAPON_autocannon_shield_penetration = 0.0

@ESC_WEAPON_artillery_hull_damage = 1.25
@ESC_WEAPON_artillery_armor_damage = 0.5
@ESC_WEAPON_artillery_armor_penetration = 0.0
@ESC_WEAPON_artillery_shield_damage = 2.0
@ESC_WEAPON_artillery_shield_penetration = 0.0

@ESC_WEAPON_megacannon_hull_damage = 1.25
@ESC_WEAPON_megacannon_armor_damage = 0.75
@ESC_WEAPON_rkkv_armor_damage = 0.75
@ESC_WEAPON_megacannon_armor_penetration = 0.0
@ESC_WEAPON_megacannon_shield_damage = 1.5
@ESC_WEAPON_megacannon_shield_penetration = 0.0

@ESC_WEAPON_mhd_cannon_hull_damage = 1.25
@ESC_WEAPON_mhd_cannon_armor_damage = 1.0
@ESC_WEAPON_mhd_cannon_armor_penetration = 0.5
@ESC_WEAPON_mhd_cannon_shield_damage = 1.25
@ESC_WEAPON_mhd_cannon_shield_penetration = 0.0

############################################################
##                Advanced Gauss Cannon                   ##
############################################################

# small
weapon_component_template = {
	key = SMALL_ESC_MASS_DRIVER_6
	size = small
	icon = GFX_esc_mass_driver_6
	icon_frame = 1
	type = instant

	damage = { min = 18 max = 57 }
	windup = { min = 4 max = 14 }
	total_fire_time = 20
	range = @ESC_WEAPON_RANGE_S_3
	accuracy = 0.75
	power = -20

	resources = {
		category = ship_components
		cost = {
			alloys = @ESC_WEAPON_s_t6_cost_alloys
			volatile_motes = @ESC_WEAPON_s_t6_cost_special
		}
		upkeep = {
			energy = @ESC_WEAPON_s_t6_upkeep_energy
			alloys = @ESC_WEAPON_s_t6_upkeep_alloys
		}
	}

	hull_damage = @ESC_WEAPON_mass_driver_hull_damage
	armor_penetration = @ESC_WEAPON_mass_driver_armor_penetration
	armor_damage = @ESC_WEAPON_mass_driver_armor_damage
	shield_penetration = @ESC_WEAPON_mass_driver_shield_penetration
	shield_damage = @ESC_WEAPON_mass_driver_shield_damage
	tracking = 0.5

	prerequisites = { "esc_tech_mass_driver_6" }
	component_set = ESC_MASS_DRIVER_6
	projectile_gfx = "gauss_cannon_s"
	tags = { weapon_type_kinetic s_slot }
	ai_tags = { weapon_role_anti_shield brawler brawler_stealth gunship }
	upgrades_to = SMALL_ESC_MASS_DRIVER_7

	ai_weight = {
		weight = 1
		### AI shouldn't use this component if it can't afford at least some upgrades right away
		modifier = {
			factor = 0.0
			no_resource_for_component = { RESOURCE = volatile_motes }
		}
	}
}

# medium
weapon_component_template = {
	key = MEDIUM_ESC_MASS_DRIVER_6
	size = medium
	icon = GFX_esc_mass_driver_6
	icon_frame = 1
	type = instant

	damage = { min = 44 max = 148 }
	windup = { min = 5 max = 17 }
	total_fire_time = 25
	range = @ESC_WEAPON_RANGE_M_4
	accuracy = 0.75
	power = -34

	resources = {
		category = ship_components
		cost = {
			alloys = @ESC_WEAPON_m_t6_cost_alloys
			volatile_motes = @ESC_WEAPON_m_t6_cost_special
		}
		upkeep = {
			energy = @ESC_WEAPON_m_t6_upkeep_energy
			alloys = @ESC_WEAPON_m_t6_upkeep_alloys
		}
	}

	hull_damage = @ESC_WEAPON_mass_driver_hull_damage
	armor_penetration = @ESC_WEAPON_mass_driver_armor_penetration
	armor_damage = @ESC_WEAPON_mass_driver_armor_damage
	shield_penetration = @ESC_WEAPON_mass_driver_shield_penetration
	shield_damage = @ESC_WEAPON_mass_driver_shield_damage
	tracking = 0.3

	prerequisites = { "esc_tech_mass_driver_6" }
	component_set = ESC_MASS_DRIVER_6
	projectile_gfx = "gauss_cannon_m"
	tags = { weapon_type_kinetic m_slot }
	ai_tags = { weapon_role_anti_shield gunship }
	upgrades_to = MEDIUM_ESC_MASS_DRIVER_7

	ai_weight = {
		weight = 1
		### AI shouldn't use this component if it can't afford at least some upgrades right away
		modifier = {
			factor = 0.0
			no_resource_for_component = { RESOURCE = volatile_motes }
		}
	}
}

# large
weapon_component_template = {
	key = LARGE_ESC_MASS_DRIVER_6
	size = large
	icon = GFX_esc_mass_driver_6
	icon_frame = 1
	type = instant

	damage = { min = 104 max = 318 }
	windup = { min = 5 max = 20 }
	total_fire_time = 30
	range = @ESC_WEAPON_RANGE_L_4
	min_range = @ESC_WEAPON_MIN_RANGE_4
	accuracy = 0.75
	power = -64

	resources = {
		category = ship_components
		cost = {
			alloys = @ESC_WEAPON_l_t6_cost_alloys
			volatile_motes = @ESC_WEAPON_l_t6_cost_special
		}
		upkeep = {
			energy = @ESC_WEAPON_l_t6_upkeep_energy
			alloys = @ESC_WEAPON_l_t6_upkeep_alloys
		}
	}

	hull_damage = @ESC_WEAPON_mass_driver_hull_damage
	armor_penetration = @ESC_WEAPON_mass_driver_armor_penetration
	armor_damage = @ESC_WEAPON_mass_driver_armor_damage
	shield_penetration = @ESC_WEAPON_mass_driver_shield_penetration
	shield_damage = @ESC_WEAPON_mass_driver_shield_damage
	tracking = 0.05

	prerequisites = { "esc_tech_mass_driver_6" }
	component_set = ESC_MASS_DRIVER_6
	projectile_gfx = "gauss_cannon_l"
	tags = { weapon_type_kinetic l_slot }
	ai_tags = { weapon_role_anti_shield brawler gunship }
	upgrades_to = LARGE_ESC_MASS_DRIVER_7

	ai_weight = {
		weight = 1
		### AI shouldn't use this component if it can't afford at least some upgrades right away
		modifier = {
			factor = 0.0
			no_resource_for_component = { RESOURCE = volatile_motes }
		}
	}
}

############################################################
##                     Strike Cannon                      ##
############################################################

# small
weapon_component_template = {
	key = SMALL_ESC_MASS_DRIVER_7
	size = small
	icon = GFX_esc_mass_driver_7
	icon_frame = 1
	type = instant

	damage = { min = 24 max = 74 }
	windup = { min = 4 max = 14 }
	total_fire_time = 20
	range = @ESC_WEAPON_RANGE_S_3
	accuracy = 0.75
	power = -24

	resources = {
		category = ship_components
		cost = {
			alloys = @ESC_WEAPON_s_t7_cost_alloys
			volatile_motes = @ESC_WEAPON_s_t7_cost_special
		}
		upkeep = {
			energy = @ESC_WEAPON_s_t7_upkeep_energy
			alloys = @ESC_WEAPON_s_t7_upkeep_alloys
		}
	}

	hull_damage = @ESC_WEAPON_mass_driver_hull_damage
	armor_penetration = @ESC_WEAPON_mass_driver_armor_penetration
	armor_damage = @ESC_WEAPON_mass_driver_armor_damage
	shield_penetration = @ESC_WEAPON_mass_driver_shield_penetration
	shield_damage = @ESC_WEAPON_mass_driver_shield_damage
	tracking = 0.5

	prerequisites = { "esc_tech_mass_driver_7" }
	component_set = ESC_MASS_DRIVER_7
	projectile_gfx = "gauss_cannon_s"
	tags = { weapon_type_kinetic s_slot }
	ai_tags = { weapon_role_anti_shield brawler brawler_stealth gunship }

	ai_weight = {
		weight = 1
		### AI shouldn't use this component if it can't afford at least some upgrades right away
		modifier = {
			factor = 0.0
			no_resource_for_component = { RESOURCE = volatile_motes }
		}
	}
}

# medium
weapon_component_template = {
	key = MEDIUM_ESC_MASS_DRIVER_7
	size = medium
	icon = GFX_esc_mass_driver_7
	icon_frame = 1
	type = instant

	damage = { min = 67 max = 192 }
	windup = { min = 5 max = 17 }
	total_fire_time = 25
	range = @ESC_WEAPON_RANGE_M_4
	accuracy = 0.75
	power = -46

	resources = {
		category = ship_components
		cost = {
			alloys = @ESC_WEAPON_m_t7_cost_alloys
			volatile_motes = @ESC_WEAPON_m_t7_cost_special
		}
		upkeep = {
			energy = @ESC_WEAPON_m_t7_upkeep_energy
			alloys = @ESC_WEAPON_m_t7_upkeep_alloys
		}
	}

	hull_damage = @ESC_WEAPON_mass_driver_hull_damage
	armor_penetration = @ESC_WEAPON_mass_driver_armor_penetration
	armor_damage = @ESC_WEAPON_mass_driver_armor_damage
	shield_penetration = @ESC_WEAPON_mass_driver_shield_penetration
	shield_damage = @ESC_WEAPON_mass_driver_shield_damage
	tracking = 0.3

	prerequisites = { "esc_tech_mass_driver_7" }
	component_set = ESC_MASS_DRIVER_7
	projectile_gfx = "gauss_cannon_m"
	tags = { weapon_type_kinetic m_slot }
	ai_tags = { weapon_role_anti_shield gunship }

	ai_weight = {
		weight = 1
		### AI shouldn't use this component if it can't afford at least some upgrades right away
		modifier = {
			factor = 0.0
			no_resource_for_component = { RESOURCE = volatile_motes }
		}
	}
}

# large
weapon_component_template = {
	key = LARGE_ESC_MASS_DRIVER_7
	size = large
	icon = GFX_esc_mass_driver_7
	icon_frame = 1
	type = instant

	damage = { min = 158 max = 378 }
	windup = { min = 5 max = 20 }
	total_fire_time = 30
	range = @ESC_WEAPON_RANGE_L_4
	min_range = @ESC_WEAPON_MIN_RANGE_4
	accuracy = 0.75
	power = -90

	resources = {
		category = ship_components
		cost = {
			alloys = @ESC_WEAPON_l_t7_cost_alloys
			volatile_motes = @ESC_WEAPON_l_t7_cost_special
		}
		upkeep = {
			energy = @ESC_WEAPON_l_t7_upkeep_energy
			alloys = @ESC_WEAPON_l_t7_upkeep_alloys
		}
	}

	hull_damage = @ESC_WEAPON_mass_driver_hull_damage
	armor_penetration = @ESC_WEAPON_mass_driver_armor_penetration
	armor_damage = @ESC_WEAPON_mass_driver_armor_damage
	shield_penetration = @ESC_WEAPON_mass_driver_shield_penetration
	shield_damage = @ESC_WEAPON_mass_driver_shield_damage
	tracking = 0.05

	prerequisites = { "esc_tech_mass_driver_7" }
	component_set = ESC_MASS_DRIVER_7
	projectile_gfx = "gauss_cannon_l"
	tags = { weapon_type_kinetic l_slot }
	ai_tags = { weapon_role_anti_shield gunship }

	ai_weight = {
		weight = 1
		### AI shouldn't use this component if it can't afford at least some upgrades right away
		modifier = {
			factor = 0.0
			no_resource_for_component = { RESOURCE = volatile_motes }
		}
	}
}

############################################################
##            Improved Stormfire Autocannon               ##
############################################################

# small
weapon_component_template = {
	key = SMALL_ESC_AUTOCANNON_4
	size = small
	icon = GFX_esc_autocannon_4
	icon_frame = 1
	type = instant

	damage = { min = 17 max = 35 }
	windup = { min = 1 max = 4 }
	total_fire_time = 6
	range = @ESC_WEAPON_RANGE_S_1
	accuracy = 0.85
	power = -20

	resources = {
		category = ship_components
		cost = {
			alloys = @ESC_WEAPON_s_t6_cost_alloys
			volatile_motes = @ESC_WEAPON_s_t6_cost_special
		}
		upkeep = {
			energy = @ESC_WEAPON_s_t6_upkeep_energy
			alloys = @ESC_WEAPON_s_t6_upkeep_alloys
		}
	}

	hull_damage = @ESC_WEAPON_autocannon_hull_damage
	armor_penetration = @ESC_WEAPON_autocannon_armor_penetration
	armor_damage = @ESC_WEAPON_autocannon_armor_damage
	shield_penetration = @ESC_WEAPON_autocannon_shield_penetration
	shield_damage = @ESC_WEAPON_autocannon_shield_damage
	tracking = 0.75

	prerequisites = { "esc_tech_autocannon_4" }
	component_set = ESC_AUTOCANNON_4
	projectile_gfx = "esc_autocannon_4_small"
	tags = { weapon_type_kinetic s_slot }
	ai_tags = { weapon_role_anti_shield brawler brawler_stealth }
	upgrades_to = SMALL_ESC_AUTOCANNON_5

	ai_weight = {
		weight = 1
		### AI shouldn't use this component if it can't afford at least some upgrades right away
		modifier = {
			factor = 0.0
			no_resource_for_component = { RESOURCE = volatile_motes }
		}
	}
}

# medium
weapon_component_template = {
	key = MEDIUM_ESC_AUTOCANNON_4
	size = medium
	icon = GFX_esc_autocannon_4
	icon_frame = 1
	type = instant

	damage = { min = 43 max = 88 }
	windup = { min = 2 max = 6 }
	total_fire_time = 9
	range = @ESC_WEAPON_RANGE_P_2
	accuracy = 0.85
	power = -34

	resources = {
		category = ship_components
		cost = {
			alloys = @ESC_WEAPON_m_t6_cost_alloys
			volatile_motes = @ESC_WEAPON_m_t6_cost_special
		}
		upkeep = {
			energy = @ESC_WEAPON_m_t6_upkeep_energy
			alloys = @ESC_WEAPON_m_t6_upkeep_alloys
		}
	}

	hull_damage = @ESC_WEAPON_autocannon_hull_damage
	armor_penetration = @ESC_WEAPON_autocannon_armor_penetration
	armor_damage = @ESC_WEAPON_autocannon_armor_damage
	shield_penetration = @ESC_WEAPON_autocannon_shield_penetration
	shield_damage = @ESC_WEAPON_autocannon_shield_damage
	tracking = 0.5

	prerequisites = { "esc_tech_autocannon_4" }
	component_set = ESC_AUTOCANNON_4
	projectile_gfx = "esc_autocannon_4_medium"
	tags = { weapon_type_kinetic m_slot }
	ai_tags = { weapon_role_anti_shield brawler brawler_stealth }
	upgrades_to = MEDIUM_ESC_AUTOCANNON_5

	ai_weight = {
		weight = 1
		### AI shouldn't use this component if it can't afford at least some upgrades right away
		modifier = {
			factor = 0.0
			no_resource_for_component = { RESOURCE = volatile_motes }
		}
	}
}

# large
weapon_component_template = {
	key = LARGE_ESC_AUTOCANNON_4
	size = large
	icon = GFX_esc_autocannon_4
	icon_frame = 1
	type = instant

	damage = { min = 102 max = 210 }
	windup = { min = 2 max = 8 }
	total_fire_time = 12
	range = @ESC_WEAPON_RANGE_S_2
	accuracy = 0.85
	power = -64

	resources = {
		category = ship_components
		cost = {
			alloys = @ESC_WEAPON_l_t6_cost_alloys
			volatile_motes = @ESC_WEAPON_l_t6_cost_special
		}
		upkeep = {
			energy = @ESC_WEAPON_l_t6_upkeep_energy
			alloys = @ESC_WEAPON_l_t6_upkeep_alloys
		}
	}

	hull_damage = @ESC_WEAPON_autocannon_hull_damage
	armor_penetration = @ESC_WEAPON_autocannon_armor_penetration
	armor_damage = @ESC_WEAPON_autocannon_armor_damage
	shield_penetration = @ESC_WEAPON_autocannon_shield_penetration
	shield_damage = @ESC_WEAPON_autocannon_shield_damage
	tracking = 0.25

	prerequisites = { "esc_tech_autocannon_4" }
	component_set = ESC_AUTOCANNON_4
	projectile_gfx = "esc_autocannon_4_large"
	tags = { weapon_type_kinetic l_slot }
	ai_tags = { weapon_role_anti_shield brawler brawler_stealth }
	upgrades_to = LARGE_ESC_AUTOCANNON_5

	ai_weight = {
		weight = 1
		### AI shouldn't use this component if it can't afford at least some upgrades right away
		modifier = {
			factor = 0.0
			no_resource_for_component = { RESOURCE = volatile_motes }
		}
	}
}

############################################################
##                  Shredder Autocannon                   ##
############################################################

# small
weapon_component_template = {
	key = SMALL_ESC_AUTOCANNON_5
	size = small
	icon = GFX_esc_autocannon_5
	icon_frame = 1
	type = instant

	damage = { min = 22 max = 44 }
	windup = { min = 1 max = 4 }
	total_fire_time = 6
	range = @ESC_WEAPON_RANGE_S_1
	accuracy = 0.85
	power = -24

	resources = {
		category = ship_components
		cost = {
			alloys = @ESC_WEAPON_s_t7_cost_alloys
			volatile_motes = @ESC_WEAPON_s_t7_cost_special
		}
		upkeep = {
			energy = @ESC_WEAPON_s_t7_upkeep_energy
			alloys = @ESC_WEAPON_s_t7_upkeep_alloys
		}
	}

	hull_damage = @ESC_WEAPON_autocannon_hull_damage
	armor_penetration = @ESC_WEAPON_autocannon_armor_penetration
	armor_damage = @ESC_WEAPON_autocannon_armor_damage
	shield_penetration = @ESC_WEAPON_autocannon_shield_penetration
	shield_damage = @ESC_WEAPON_autocannon_shield_damage
	tracking = 0.75

	prerequisites = { "esc_tech_autocannon_5" }
	component_set = ESC_AUTOCANNON_5
	projectile_gfx = "esc_autocannon_5_small"
	tags = { weapon_type_kinetic s_slot }
	ai_tags = { weapon_role_anti_shield brawler brawler_stealth }

	ai_weight = {
		weight = 1
		### AI shouldn't use this component if it can't afford at least some upgrades right away
		modifier = {
			factor = 0.0
			no_resource_for_component = { RESOURCE = volatile_motes }
		}
	}
}

# medium
weapon_component_template = {
	key = MEDIUM_ESC_AUTOCANNON_5
	size = medium
	icon = GFX_esc_autocannon_5
	icon_frame = 1
	type = instant

	damage = { min = 54 max = 110 }
	windup = { min = 2 max = 6 }
	total_fire_time = 9
	range = @ESC_WEAPON_RANGE_P_2
	accuracy = 0.85
	power = -46

	resources = {
		category = ship_components
		cost = {
			alloys = @ESC_WEAPON_m_t7_cost_alloys
			volatile_motes = @ESC_WEAPON_m_t7_cost_special
		}
		upkeep = {
			energy = @ESC_WEAPON_m_t7_upkeep_energy
			alloys = @ESC_WEAPON_m_t7_upkeep_alloys
		}
	}

	hull_damage = @ESC_WEAPON_autocannon_hull_damage
	armor_penetration = @ESC_WEAPON_autocannon_armor_penetration
	armor_damage = @ESC_WEAPON_autocannon_armor_damage
	shield_penetration = @ESC_WEAPON_autocannon_shield_penetration
	shield_damage = @ESC_WEAPON_autocannon_shield_damage
	tracking = 0.5

	prerequisites = { "esc_tech_autocannon_5" }
	component_set = ESC_AUTOCANNON_5
	projectile_gfx = "esc_autocannon_5_medium"
	tags = { weapon_type_kinetic m_slot }
	ai_tags = { weapon_role_anti_shield brawler brawler_stealth }

	ai_weight = {
		weight = 1
		### AI shouldn't use this component if it can't afford at least some upgrades right away
		modifier = {
			factor = 0.0
			no_resource_for_component = { RESOURCE = volatile_motes }
		}
	}
}

# large
weapon_component_template = {
	key = LARGE_ESC_AUTOCANNON_5
	size = large
	icon = GFX_esc_autocannon_5
	icon_frame = 1
	type = instant

	damage = { min = 132 max = 246 }
	windup = { min = 2 max = 8 }
	total_fire_time = 12
	range = @ESC_WEAPON_RANGE_S_2
	accuracy = 0.85
	power = -90

	resources = {
		category = ship_components
		cost = {
			alloys = @ESC_WEAPON_l_t7_cost_alloys
			volatile_motes = @ESC_WEAPON_l_t7_cost_special
		}
		upkeep = {
			energy = @ESC_WEAPON_l_t7_upkeep_energy
			alloys = @ESC_WEAPON_l_t7_upkeep_alloys
		}
	}

	hull_damage = @ESC_WEAPON_autocannon_hull_damage
	armor_penetration = @ESC_WEAPON_autocannon_armor_penetration
	armor_damage = @ESC_WEAPON_autocannon_armor_damage
	shield_penetration = @ESC_WEAPON_autocannon_shield_penetration
	shield_damage = @ESC_WEAPON_autocannon_shield_damage
	tracking = 0.25

	prerequisites = { "esc_tech_autocannon_5" }
	component_set = ESC_AUTOCANNON_5
	projectile_gfx = "esc_autocannon_5_large"
	tags = { weapon_type_kinetic l_slot }
	ai_tags = { weapon_role_anti_shield brawler brawler_stealth }

	ai_weight = {
		weight = 1
		### AI shouldn't use this component if it can't afford at least some upgrades right away
		modifier = {
			factor = 0.0
			no_resource_for_component = { RESOURCE = volatile_motes }
		}
	}
}

############################################################
##                Improved Kinetic Artillery              ##
############################################################

weapon_component_template = {
	key = ESC_ARTILLERY_3
	size = large
	icon = GFX_esc_kinetic_artillery_3
	icon_frame = 1
	type = instant

	damage = { min = 245 max = 720 }
	windup = { min = 9 max = 34 }
	total_fire_time = 50
	range = @ESC_WEAPON_RANGE_L_5
	min_range = @ESC_WEAPON_MIN_RANGE_5
	accuracy = 0.75
	power = -110

	resources = {
		category = ship_components
		cost = {
			alloys = @ESC_WEAPON_l_t7_cost_alloys
			volatile_motes = @ESC_WEAPON_l_t7_cost_special
		}
		upkeep = {
			energy = @ESC_WEAPON_l_t7_upkeep_energy
			alloys = @ESC_WEAPON_l_t7_upkeep_alloys
		}
	}

	hull_damage = @ESC_WEAPON_artillery_hull_damage
	armor_penetration = @ESC_WEAPON_artillery_armor_penetration
	armor_damage = @ESC_WEAPON_artillery_armor_damage
	shield_penetration = @ESC_WEAPON_artillery_shield_penetration
	shield_damage = @ESC_WEAPON_artillery_shield_damage
	tracking = 0.05

	prerequisites = { "esc_tech_kinetic_artillery_3" }
	component_set = ESC_ARTILLERY_3
	projectile_gfx = "adv_kinetic_artillery"
	tags = { weapon_type_kinetic l_slot }
	ai_tags = { weapon_role_artillery weapon_role_anti_shield artillery artillery_stealth }
	upgrades_to = ESC_ARTILLERY_4

	ai_weight = {
		weight = 1
		### AI shouldn't use this component if it can't afford at least some upgrades right away
		modifier = {
			factor = 0.0
			no_resource_for_component = { RESOURCE = volatile_motes }
		}
	}
}

############################################################
##                  Skypiercer Artillery                  ##
############################################################

weapon_component_template = {
	key = ESC_ARTILLERY_4
	size = large
	icon = GFX_esc_kinetic_artillery_4
	icon_frame = 1
	type = instant

	damage = { min = 300 max = 870 }
	windup = { min = 9 max = 34 }
	total_fire_time = 50
	range = @ESC_WEAPON_RANGE_L_5
	min_range = @ESC_WEAPON_MIN_RANGE_5
	accuracy = 0.75
	power = -130

	resources = {
		category = ship_components
		cost = {
			alloys = @ESC_WEAPON_l_t8_cost_alloys
			volatile_motes = @ESC_WEAPON_l_t8_cost_special
		}
		upkeep = {
			energy = @ESC_WEAPON_l_t8_upkeep_energy
			alloys = @ESC_WEAPON_l_t8_upkeep_alloys
		}
	}

	hull_damage = @ESC_WEAPON_artillery_hull_damage
	armor_penetration = @ESC_WEAPON_artillery_armor_penetration
	armor_damage = @ESC_WEAPON_artillery_armor_damage
	shield_penetration = @ESC_WEAPON_artillery_shield_penetration
	shield_damage = @ESC_WEAPON_artillery_shield_damage
	tracking = 0.05

	prerequisites = { "esc_tech_kinetic_artillery_4" }
	component_set = ESC_ARTILLERY_4
	projectile_gfx = "adv_kinetic_artillery"
	tags = { weapon_type_kinetic l_slot }
	ai_tags = { weapon_role_artillery weapon_role_anti_shield artillery artillery_stealth }

	ai_weight = {
		weight = 1
		### AI shouldn't use this component if it can't afford at least some upgrades right away
		modifier = {
			factor = 0.0
			no_resource_for_component = { RESOURCE = volatile_motes }
		}
	}
}

############################################################
##                  Improved Giga-Cannon                  ##
############################################################

weapon_component_template = {
	key = ESC_MASS_ACCELERATOR_3
	size = extra_large
	icon = GFX_esc_mass_accelerator_3
	icon_frame = 1
	type = instant

    damage = { min = 1200 max = 3200 }
	windup = { min = 14 max = 54 }
	total_fire_time = 80
	range = @ESC_WEAPON_RANGE_X_3
	accuracy = 0.75
	power = -280

	resources = {
		category = ship_components
		cost = {
			alloys = @ESC_WEAPON_xl_t7_cost_alloys
			volatile_motes = @ESC_WEAPON_xl_t7_cost_special
		}
		upkeep = {
			energy = @ESC_WEAPON_xl_t7_upkeep_energy
			alloys = @ESC_WEAPON_xl_t7_upkeep_alloys
		}
	}

	hull_damage = @ESC_WEAPON_megacannon_hull_damage
	armor_penetration = @ESC_WEAPON_megacannon_armor_penetration
	armor_damage = @ESC_WEAPON_megacannon_armor_damage
	shield_penetration = @ESC_WEAPON_megacannon_shield_penetration
	shield_damage = @ESC_WEAPON_megacannon_shield_damage
	tracking = 0.0

	firing_arc = 25.0
	min_range = @ESC_WEAPON_MIN_RANGE_5
	use_ship_kill_target = no

	prerequisites = { "esc_tech_giga_cannon_3" }
	component_set = ESC_MASS_ACCELERATOR_3
	projectile_gfx = "adv_kinetic_artillery"
	tags = { weapon_type_kinetic x_slot }
	ai_tags = { weapon_role_artillery artillery }
	upgrades_to = ESC_MASS_ACCELERATOR_4

	target_weights = {
		titan = 3
		battleship = 2
	}

	ai_weight = {
		weight = 1
		modifier = {
			factor = 0.0
			no_resource_for_component = { RESOURCE = volatile_motes }
		}
	}
}

############################################################
##                    The Grand Cannon                    ##
############################################################

weapon_component_template = {
	key = ESC_MASS_ACCELERATOR_4
	size = extra_large
	icon = GFX_esc_mass_accelerator_4
	icon_frame = 1
	type = instant

	damage = { min = 1500 max = 3700 }
	windup = { min = 14 max = 54 }
	total_fire_time = 80
	range = @ESC_WEAPON_RANGE_X_3
	accuracy = 0.75
	power = -330

	resources = {
		category = ship_components
		cost = {
			alloys = @ESC_WEAPON_xl_t8_cost_alloys
			volatile_motes = @ESC_WEAPON_xl_t8_cost_special
		}
		upkeep = {
			energy = @ESC_WEAPON_xl_t8_upkeep_energy
			alloys = @ESC_WEAPON_xl_t8_upkeep_alloys
		}
	}

	hull_damage = @ESC_WEAPON_megacannon_hull_damage
	armor_penetration = @ESC_WEAPON_megacannon_armor_penetration
	armor_damage = @ESC_WEAPON_megacannon_armor_damage
	shield_penetration = @ESC_WEAPON_megacannon_shield_penetration
	shield_damage = @ESC_WEAPON_megacannon_shield_damage
	tracking = 0.05

	firing_arc = 25.0
	min_range = @ESC_WEAPON_MIN_RANGE_5
	use_ship_kill_target = no

	prerequisites = { "esc_tech_giga_cannon_4" }
	component_set = ESC_MASS_ACCELERATOR_4
	projectile_gfx = "adv_kinetic_artillery"
	upgrades_to = ESC_MASS_ACCELERATOR_JUGGERNAUT
	tags = { weapon_type_kinetic x_slot }
	ai_tags = { weapon_role_artillery artillery }

	target_weights = {
		titan = 3
		battleship = 2
	}

	ai_weight = {
		weight = 1
		modifier = {
			factor = 0.0
			no_resource_for_component = { RESOURCE = volatile_motes }
		}
	}
}

############################################################
##           Relativistic Kinetic Kill Vehicle            ##
############################################################

# titan
weapon_component_template = {
	key = ESC_MASS_ACCELERATOR_TITANIC
	size = titanic
	icon = GFX_esc_mass_accelerator_titanic
	icon_frame = 1
	type = instant

    damage = { min = 5500 max = 10000 }
	windup = { min = 40 max = 100 }
	total_fire_time = 155
	range = @ESC_WEAPON_RANGE_T_3
	accuracy = 0.8
	power = -500

	resources = {
		category = ship_components
		cost = {
			alloys = @ESC_WEAPON_t_t6_cost_alloys
			volatile_motes = @ESC_WEAPON_t_t6_cost_special
		}
		upkeep = {
			energy = @ESC_WEAPON_t_t6_upkeep_energy
			alloys = @ESC_WEAPON_t_t6_upkeep_alloys
		}
	}

	hull_damage = @ESC_WEAPON_megacannon_hull_damage
	armor_penetration = @ESC_WEAPON_megacannon_armor_penetration
	armor_damage = @ESC_WEAPON_megacannon_armor_damage
	shield_penetration = @ESC_WEAPON_megacannon_shield_penetration
	shield_damage = @ESC_WEAPON_megacannon_shield_damage
	tracking = 0.05

	firing_arc = 25.0
	min_range = @ESC_WEAPON_MIN_RANGE_5
	use_ship_kill_target = no

	prerequisites = { "esc_tech_giga_cannon_titanic" }
	component_set =ESC_MASS_ACCELERATOR_TITANIC
	projectile_gfx = "adv_kinetic_artillery"
	tags = { weapon_type_kinetic t_slot }
	ai_tags = { weapon_role_artillery artillery }

	target_weights = {
		titan = 3
		battleship = 2
	}

	ai_weight = {
		weight = 1
		modifier = {
			factor = 0.0
			no_resource_for_component = { RESOURCE = volatile_motes }
		}
	}
}

# juggernaut
weapon_component_template = {
	key = ESC_MASS_ACCELERATOR_JUGGERNAUT
	size = extra_large
	icon = GFX_esc_mass_accelerator_titanic
	icon_frame = 1
	type = instant

    damage = { min = 5500 max = 10000 }
	windup = { min = 40 max = 100 }
	total_fire_time = 155
	range = @ESC_WEAPON_RANGE_J_3
	accuracy = 0.8
	power = -500

	resources = {
		category = ship_components
		cost = {
			alloys = @ESC_WEAPON_t_t6_cost_alloys
			volatile_motes = @ESC_WEAPON_t_t6_cost_special
		}
		upkeep = {
			energy = @ESC_WEAPON_t_t6_upkeep_energy
			alloys = @ESC_WEAPON_t_t6_upkeep_alloys
		}
	}

	hull_damage = @ESC_WEAPON_megacannon_hull_damage
	armor_penetration = @ESC_WEAPON_megacannon_armor_penetration
	armor_damage = @ESC_WEAPON_megacannon_armor_damage
	shield_penetration = @ESC_WEAPON_megacannon_shield_penetration
	shield_damage = @ESC_WEAPON_megacannon_shield_damage
	tracking = 0.05

	firing_arc = 25.0
	min_range = @ESC_WEAPON_MIN_RANGE_5
	use_ship_kill_target = no

	prerequisites = { "esc_tech_giga_cannon_titanic" }
	component_set = ESC_MASS_ACCELERATOR_JUGGERNAUT
	projectile_gfx = "adv_kinetic_artillery"
	size_restriction = { juggernaut @MISC_WarJuggernaut }
	tags = { weapon_type_kinetic x_slot }
	ai_tags = { weapon_role_artillery artillery }

	target_weights = {
		titan = 3
		battleship = 2
	}

	ai_weight = {
		weight = 1
		modifier = {
			factor = 0.0
			no_resource_for_component = { RESOURCE = volatile_motes }
		}
	}
}

############################################################
##                 Hailstorm Autocannon                   ##
############################################################

weapon_component_template = {
	key = ESC_AUTOCANNON_X_1
	size = extra_large
	icon = GFX_esc_x_autocannon_1
	icon_frame = 1
	type = instant

    damage = { min = 400 max = 750 }
	windup = { min = 3 max = 12 }
	total_fire_time = 22
	range = @ESC_WEAPON_RANGE_X_1
	accuracy = 0.85
	power = -275

	resources = {
		category = ship_components
		cost = {
			alloys = @ESC_WEAPON_xl_t7_cost_alloys
			volatile_motes = @ESC_WEAPON_xl_t7_cost_special
		}
		upkeep = {
			energy = @ESC_WEAPON_xl_t7_upkeep_energy
			alloys = @ESC_WEAPON_xl_t7_upkeep_alloys
		}
	}

	hull_damage = @ESC_WEAPON_autocannon_hull_damage
	armor_penetration = @ESC_WEAPON_autocannon_armor_penetration
	armor_damage = @ESC_WEAPON_autocannon_xl_armor_damage
	shield_penetration = @ESC_WEAPON_autocannon_shield_penetration
	shield_damage = @ESC_WEAPON_autocannon_shield_damage
	tracking = 0.25

	firing_arc = 25.0
	min_range = @ESC_WEAPON_MIN_RANGE_1
	use_ship_kill_target = no

	prerequisites = { esc_tech_autocannon_x_1 }
	component_set = ESC_AUTOCANNON_X_1
	projectile_gfx = "esc_autocannon_5_large"
	tags = { weapon_type_kinetic x_slot }
	ai_tags = { weapon_role_anti_shield }
	upgrades_to = ESC_AUTOCANNON_X_2

	ai_weight = {
		weight = 1
		### AI shouldn't use this component if it can't afford at least some upgrades right away
		modifier = {
			factor = 0.0
			no_resource_for_component = { RESOURCE = volatile_motes }
		}
	}
}

############################################################
##                  Firestorm Autocannon                  ##
############################################################

weapon_component_template = {
	key = ESC_AUTOCANNON_X_2
	size = extra_large
	icon = GFX_esc_x_autocannon_2
	icon_frame = 1
	type = instant

	damage = { min = 500 max = 850 }
	windup = { min = 3 max = 12 }
	total_fire_time = 22
	range = @ESC_WEAPON_RANGE_X_1
	accuracy = 0.85
	power = -325

	resources = {
		category = ship_components
		cost = {
			alloys = @ESC_WEAPON_xl_t8_cost_alloys