############################################################
##                 ESC : Kinetic Weapons                  ##
############################################################

# - Advanced Gauss Cannon				S/M/L
# - Strike Cannon						S/M/L
# - Improved Stromfire Autocannon		S/M/L
# - Shredder Autocannon					S/M/L
# - Improved Kinetic Artillery			L
# - Skypiercer Artillery				L
# - Improved Giga-cannon				X
# - The Grand Cannon					X
# - Relativistic Kinetic Kill Vehicle	Titanic + Juggernaut
# - Hailstorm Autocannon				X
# - Firestorm Autocannon				X
# - Tempest Autocannon					Titanic + Juggernaut
# - Juggernaut Artillery				M (Juggernaut only)
# - Improved Juggernaut Artillery		M (Juggernaut only)
# - Ferromagnetic Liquid Cannon			X
# - Imp. Ferromagnetic Liquid Cannon	X
# - MagnetoHydroDynamic Cannon			Titanic + Juggernaut

############################################################
##                Advanced Gauss Cannon                   ##
############################################################

# small
weapon_component_template = {
	key = SMALL_ESC_MASS_DRIVER_6
	size = small
	icon = GFX_esc_mass_driver_6
	icon_frame = 1
	type = instant

	damage = { min = 18 max = 57 }
	windup = { min = 4 max = 14 }
	total_fire_time = 20
	range = @ESC_WEAPON_RANGE_S_3
	accuracy = 0.75
	power = -20

	inline_script = {
		script = component_costs/shorthands/esc_inlines_standard_cost
		COMPONENT_TYPE = WEAPON
		SIZE = s
		TIER = 6
		STRATEGIC_RESOURCE_TYPE = volatile_motes
	}

	hull_damage = @ESC_WEAPON_mass_driver_hull_damage
	armor_penetration = @ESC_WEAPON_mass_driver_armor_penetration
	armor_damage = @ESC_WEAPON_mass_driver_armor_damage
	shield_penetration = @ESC_WEAPON_mass_driver_shield_penetration
	shield_damage = @ESC_WEAPON_mass_driver_shield_damage
	tracking = 0.5

	prerequisites = { "esc_tech_mass_driver_6" }
	component_set = ESC_MASS_DRIVER_6
	projectile_gfx = "gauss_cannon_s"
	tags = { weapon_type_kinetic s_slot }
	ai_tags = { weapon_role_anti_shield brawler brawler_stealth gunship }
	upgrades_to = SMALL_ESC_MASS_DRIVER_7

	inline_script = {
		script = ship_components_general/esc_inlines_uses_bio_ships
		EVAL_TARGET = no
	}

	ai_weight = {
		weight = 1
		### AI shouldn't use this component if it can't afford at least some upgrades right away
		modifier = {
			factor = 0.0
			no_resource_for_component = { RESOURCE = volatile_motes }
		}
		modifier = {
			factor = @cosmic_storm_shroud_ai_weight_factor
			has_country_flag = affected_by_shroud_storm
		}
	}
}

weapon_component_template = {
	key = SMALL_ESC_BIO_MASS_DRIVER_6
	size = small
	icon = GFX_esc_bio_mass_driver_6
	icon_frame = 1
	type = instant

	damage = { min = 18 max = 57 }
	windup = { min = 4 max = 14 }
	total_fire_time = 20
	range = @ESC_WEAPON_RANGE_S_3
	accuracy = 0.75
	power = -20

	inline_script = {
		script = component_costs/shorthands/esc_inlines_standard_cost
		COMPONENT_TYPE = WEAPON
		SIZE = s
		TIER = 6
		STRATEGIC_RESOURCE_TYPE = volatile_motes
	}

	hull_damage = @ESC_WEAPON_mass_driver_hull_damage
	armor_penetration = @ESC_WEAPON_mass_driver_armor_penetration
	armor_damage = @ESC_WEAPON_mass_driver_armor_damage
	shield_penetration = @ESC_WEAPON_mass_driver_shield_penetration
	shield_damage = @ESC_WEAPON_mass_driver_shield_damage
	tracking = 0.5

	prerequisites = { "esc_tech_mass_driver_6" }
	component_set = ESC_BIO_MASS_DRIVER_6
	projectile_gfx = "gauss_cannon_s"
	tags = { weapon_type_kinetic s_slot }
	ai_tags = { weapon_role_anti_shield brawler brawler_stealth gunship }
	upgrades_to = SMALL_ESC_BIO_MASS_DRIVER_7

	inline_script = {
		script = ship_components_general/esc_inlines_uses_bio_ships
		EVAL_TARGET = yes
	}

	ai_weight = {
		weight = 1
		### AI shouldn't use this component if it can't afford at least some upgrades right away
		modifier = {
			factor = 0.0
			no_resource_for_component = { RESOURCE = volatile_motes }
		}
		modifier = {
			factor = @cosmic_storm_shroud_ai_weight_factor
			has_country_flag = affected_by_shroud_storm
		}
	}
}

# medium
weapon_component_template = {
	key = MEDIUM_ESC_MASS_DRIVER_6
	size = medium
	icon = GFX_esc_mass_driver_6
	icon_frame = 1
	type = instant

	damage = { min = 44 max = 148 }
	windup = { min = 5 max = 17 }
	total_fire_time = 25
	range = @ESC_WEAPON_RANGE_M_4
	accuracy = 0.75
	power = -34

	inline_script = {
		script = component_costs/shorthands/esc_inlines_standard_cost
		COMPONENT_TYPE = WEAPON
		SIZE = m
		TIER = 6
		STRATEGIC_RESOURCE_TYPE = volatile_motes
	}

	hull_damage = @ESC_WEAPON_mass_driver_hull_damage
	armor_penetration = @ESC_WEAPON_mass_driver_armor_penetration
	armor_damage = @ESC_WEAPON_mass_driver_armor_damage
	shield_penetration = @ESC_WEAPON_mass_driver_shield_penetration
	shield_damage = @ESC_WEAPON_mass_driver_shield_damage
	tracking = 0.3

	prerequisites = { "esc_tech_mass_driver_6" }
	component_set = ESC_MASS_DRIVER_6
	projectile_gfx = "gauss_cannon_m"
	tags = { weapon_type_kinetic m_slot }
	ai_tags = { weapon_role_anti_shield gunship }
	upgrades_to = MEDIUM_ESC_MASS_DRIVER_7

	inline_script = {
		script = ship_components_general/esc_inlines_uses_bio_ships
		EVAL_TARGET = no
	}

	ai_weight = {
		weight = 1
		### AI shouldn't use this component if it can't afford at least some upgrades right away
		modifier = {
			factor = 0.0
			no_resource_for_component = { RESOURCE = volatile_motes }
		}
		modifier = {
			factor = @cosmic_storm_shroud_ai_weight_factor
			has_country_flag = affected_by_shroud_storm
		}
	}
}

weapon_component_template = {
	key = MEDIUM_ESC_BIO_MASS_DRIVER_6
	size = medium
	icon = GFX_esc_bio_mass_driver_6
	icon_frame = 1
	type = instant

	damage = { min = 44 max = 148 }
	windup = { min = 5 max = 17 }
	total_fire_time = 25
	range = @ESC_WEAPON_RANGE_M_4
	accuracy = 0.75
	power = -34

	inline_script = {
		script = component_costs/shorthands/esc_inlines_standard_cost
		COMPONENT_TYPE = WEAPON
		SIZE = m
		TIER = 6
		STRATEGIC_RESOURCE_TYPE = volatile_motes
	}

	hull_damage = @ESC_WEAPON_mass_driver_hull_damage
	armor_penetration = @ESC_WEAPON_mass_driver_armor_penetration
	armor_damage = @ESC_WEAPON_mass_driver_armor_damage
	shield_penetration = @ESC_WEAPON_mass_driver_shield_penetration
	shield_damage = @ESC_WEAPON_mass_driver_shield_damage
	tracking = 0.3

	prerequisites = { "esc_tech_mass_driver_6" }
	component_set = ESC_BIO_MASS_DRIVER_6
	projectile_gfx = "gauss_cannon_m"
	tags = { weapon_type_kinetic m_slot }
	ai_tags = { weapon_role_anti_shield gunship }
	upgrades_to = MEDIUM_ESC_BIO_MASS_DRIVER_7

	inline_script = {
		script = ship_components_general/esc_inlines_uses_bio_ships
		EVAL_TARGET = yes
	}

	ai_weight = {
		weight = 1
		### AI shouldn't use this component if it can't afford at least some upgrades right away
		modifier = {
			factor = 0.0
			no_resource_for_component = { RESOURCE = volatile_motes }
		}
		modifier = {
			factor = @cosmic_storm_shroud_ai_weight_factor
			has_country_flag = affected_by_shroud_storm
		}
	}
}

# large
weapon_component_template = {
	key = LARGE_ESC_MASS_DRIVER_6
	size = large
	icon = GFX_esc_mass_driver_6
	icon_frame = 1
	type = instant

	damage = { min = 104 max = 318 }
	windup = { min = 5 max = 20 }
	total_fire_time = 30
	range = @ESC_WEAPON_RANGE_L_4
	min_range = @ESC_WEAPON_MIN_RANGE_4
	accuracy = 0.75
	power = -64

	inline_script = {
		script = component_costs/shorthands/esc_inlines_standard_cost
		COMPONENT_TYPE = WEAPON
		SIZE = l
		TIER = 6
		STRATEGIC_RESOURCE_TYPE = volatile_motes
	}

	hull_damage = @ESC_WEAPON_mass_driver_hull_damage
	armor_penetration = @ESC_WEAPON_mass_driver_armor_penetration
	armor_damage = @ESC_WEAPON_mass_driver_armor_damage
	shield_penetration = @ESC_WEAPON_mass_driver_shield_penetration
	shield_damage = @ESC_WEAPON_mass_driver_shield_damage
	tracking = 0.05

	prerequisites = { "esc_tech_mass_driver_6" }
	component_set = ESC_MASS_DRIVER_6
	projectile_gfx = "gauss_cannon_l"
	tags = { weapon_type_kinetic l_slot }
	ai_tags = { weapon_role_anti_shield brawler gunship }
	upgrades_to = LARGE_ESC_MASS_DRIVER_7

	inline_script = {
		script = ship_components_general/esc_inlines_uses_bio_ships
		EVAL_TARGET = no
	}

	ai_weight = {
		weight = 1
		### AI shouldn't use this component if it can't afford at least some upgrades right away
		modifier = {
			factor = 0.0
			no_resource_for_component = { RESOURCE = volatile_motes }
		}
		modifier = {
			factor = @cosmic_storm_shroud_ai_weight_factor
			has_country_flag = affected_by_shroud_storm
		}
		modifier = {
			factor = @cosmic_storm_gravity_ai_weight_factor
			has_country_flag = affected_by_gravity_storm
		}
	}
}

weapon_component_template = {
	key = LARGE_ESC_BIO_MASS_DRIVER_6
	size = large
	icon = GFX_esc_bio_mass_driver_6
	icon_frame = 1
	type = instant

	damage = { min = 104 max = 318 }
	windup = { min = 5 max = 20 }
	total_fire_time = 30
	range = @ESC_WEAPON_RANGE_L_4
	min_range = @ESC_WEAPON_MIN_RANGE_4
	accuracy = 0.75
	power = -64

	inline_script = {
		script = component_costs/shorthands/esc_inlines_standard_cost
		COMPONENT_TYPE = WEAPON
		SIZE = l
		TIER = 6
		STRATEGIC_RESOURCE_TYPE = volatile_motes
	}

	hull_damage = @ESC_WEAPON_mass_driver_hull_damage
	armor_penetration = @ESC_WEAPON_mass_driver_armor_penetration
	armor_damage = @ESC_WEAPON_mass_driver_armor_damage
	shield_penetration = @ESC_WEAPON_mass_driver_shield_penetration
	shield_damage = @ESC_WEAPON_mass_driver_shield_damage
	tracking = 0.05

	prerequisites = { "esc_tech_mass_driver_6" }
	component_set = ESC_BIO_MASS_DRIVER_6
	projectile_gfx = "gauss_cannon_l"
	tags = { weapon_type_kinetic l_slot }
	ai_tags = { weapon_role_anti_shield brawler gunship }
	upgrades_to = LARGE_ESC_BIO_MASS_DRIVER_7

	inline_script = {
		script = ship_components_general/esc_inlines_uses_bio_ships
		EVAL_TARGET = yes
	}

	ai_weight = {
		weight = 1
		### AI shouldn't use this component if it can't afford at least some upgrades right away
		modifier = {
			factor = 0.0
			no_resource_for_component = { RESOURCE = volatile_motes }
		}
		modifier = {
			factor = @cosmic_storm_shroud_ai_weight_factor
			has_country_flag = affected_by_shroud_storm
		}
		modifier = {
			factor = @cosmic_storm_gravity_ai_weight_factor
			has_country_flag = affected_by_gravity_storm
		}
	}
}

############################################################
##                     Strike Cannon                      ##
############################################################

# small
weapon_component_template = {
	key = SMALL_ESC_MASS_DRIVER_7
	size = small
	icon = GFX_esc_mass_driver_7
	icon_frame = 1
	type = instant

	damage = { min = 24 max = 74 }
	windup = { min = 4 max = 14 }
	total_fire_time = 20
	range = @ESC_WEAPON_RANGE_S_3
	accuracy = 0.75
	power = -24

	inline_script = {
		script = component_costs/shorthands/esc_inlines_standard_cost
		COMPONENT_TYPE = WEAPON
		SIZE = s
		TIER = 7
		STRATEGIC_RESOURCE_TYPE = volatile_motes
	}

	hull_damage = @ESC_WEAPON_mass_driver_hull_damage
	armor_penetration = @ESC_WEAPON_mass_driver_armor_penetration
	armor_damage = @ESC_WEAPON_mass_driver_armor_damage
	shield_penetration = @ESC_WEAPON_mass_driver_shield_penetration
	shield_damage = @ESC_WEAPON_mass_driver_shield_damage
	tracking = 0.5

	prerequisites = { "esc_tech_mass_driver_7" }
	component_set = ESC_MASS_DRIVER_7
	projectile_gfx = "gauss_cannon_s"
	tags = { weapon_type_kinetic s_slot }
	ai_tags = { weapon_role_anti_shield brawler brawler_stealth gunship }

	inline_script = {
		script = ship_components_general/esc_inlines_uses_bio_ships
		EVAL_TARGET = no
	}

	ai_weight = {
		weight = 1
		### AI shouldn't use this component if it can't afford at least some upgrades right away
		modifier = {
			factor = 0.0
			no_resource_for_component = { RESOURCE = volatile_motes }
		}
		modifier = {
			factor = @cosmic_storm_shroud_ai_weight_factor
			has_country_flag = affected_by_shroud_storm
		}
	}
}

weapon_component_template = {
	key = SMALL_ESC_BIO_MASS_DRIVER_7
	size = small
	icon = GFX_esc_bio_mass_driver_7
	icon_frame = 1
	type = instant

	damage = { min = 24 max = 74 }
	windup = { min = 4 max = 14 }
	total_fire_time = 20
	range = @ESC_WEAPON_RANGE_S_3
	accuracy = 0.75
	power = -24

	inline_script = {
		script = component_costs/shorthands/esc_inlines_standard_cost
		COMPONENT_TYPE = WEAPON
		SIZE = s
		TIER = 7
		STRATEGIC_RESOURCE_TYPE = volatile_motes
	}

	hull_damage = @ESC_WEAPON_mass_driver_hull_damage
	armor_penetration = @ESC_WEAPON_mass_driver_armor_penetration
	armor_damage = @ESC_WEAPON_mass_driver_armor_damage
	shield_penetration = @ESC_WEAPON_mass_driver_shield_penetration
	shield_damage = @ESC_WEAPON_mass_driver_shield_damage
	tracking = 0.5

	prerequisites = { "esc_tech_mass_driver_7" }
	component_set = ESC_BIO_MASS_DRIVER_7
	projectile_gfx = "gauss_cannon_s"
	tags = { weapon_type_kinetic s_slot }
	ai_tags = { weapon_role_anti_shield brawler brawler_stealth gunship }

	inline_script = {
		script = ship_components_general/esc_inlines_uses_bio_ships
		EVAL_TARGET = yes
	}

	ai_weight = {
		weight = 1
		### AI shouldn't use this component if it can't afford at least some upgrades right away
		modifier = {
			factor = 0.0
			no_resource_for_component = { RESOURCE = volatile_motes }
		}
		modifier = {
			factor = @cosmic_storm_shroud_ai_weight_factor
			has_country_flag = affected_by_shroud_storm
		}
	}
}

# medium
weapon_component_template = {
	key = MEDIUM_ESC_MASS_DRIVER_7
	size = medium
	icon = GFX_esc_mass_driver_7
	icon_frame = 1
	type = instant

	damage = { min = 67 max = 192 }
	windup = { min = 5 max = 17 }
	total_fire_time = 25
	range = @ESC_WEAPON_RANGE_M_4
	accuracy = 0.75
	power = -46

	inline_script = {
		script = component_costs/shorthands/esc_inlines_standard_cost
		COMPONENT_TYPE = WEAPON
		SIZE = m
		TIER = 7
		STRATEGIC_RESOURCE_TYPE = volatile_motes
	}

	hull_damage = @ESC_WEAPON_mass_driver_hull_damage
	armor_penetration = @ESC_WEAPON_mass_driver_armor_penetration
	armor_damage = @ESC_WEAPON_mass_driver_armor_damage
	shield_penetration = @ESC_WEAPON_mass_driver_shield_penetration
	shield_damage = @ESC_WEAPON_mass_driver_shield_damage
	tracking = 0.3

	prerequisites = { "esc_tech_mass_driver_7" }
	component_set = ESC_MASS_DRIVER_7
	projectile_gfx = "gauss_cannon_m"
	tags = { weapon_type_kinetic m_slot }
	ai_tags = { weapon_role_anti_shield gunship }

	inline_script = {
		script = ship_components_general/esc_inlines_uses_bio_ships
		EVAL_TARGET = no
	}

	ai_weight = {
		weight = 1
		### AI shouldn't use this component if it can't afford at least some upgrades right away
		modifier = {
			factor = 0.0
			no_resource_for_component = { RESOURCE = volatile_motes }
		}
		modifier = {
			factor = @cosmic_storm_shroud_ai_weight_factor
			has_country_flag = affected_by_shroud_storm
		}
	}
}

weapon_component_template = {
	key = MEDIUM_ESC_BIO_MASS_DRIVER_7
	size = medium
	icon = GFX_esc_bio_mass_driver_7
	icon_frame = 1
	type = instant

	damage = { min = 67 max = 192 }
	windup = { min = 5 max = 17 }
	total_fire_time = 25
	range = @ESC_WEAPON_RANGE_M_4
	accuracy = 0.75
	power = -46

	inline_script = {
		script = component_costs/shorthands/esc_inlines_standard_cost
		COMPONENT_TYPE = WEAPON
		SIZE = m
		TIER = 7
		STRATEGIC_RESOURCE_TYPE = volatile_motes
	}

	hull_damage = @ESC_WEAPON_mass_driver_hull_damage
	armor_penetration = @ESC_WEAPON_mass_driver_armor_penetration
	armor_damage = @ESC_WEAPON_mass_driver_armor_damage
	shield_penetration = @ESC_WEAPON_mass_driver_shield_penetration
	shield_damage = @ESC_WEAPON_mass_driver_shield_damage
	tracking = 0.3

	prerequisites = { "esc_tech_mass_driver_7" }
	component_set = ESC_BIO_MASS_DRIVER_7
	projectile_gfx = "gauss_cannon_m"
	tags = { weapon_type_kinetic m_slot }
	ai_tags = { weapon_role_anti_shield gunship }

	inline_script = {
		script = ship_components_general/esc_inlines_uses_bio_ships
		EVAL_TARGET = yes
	}

	ai_weight = {
		weight = 1
		### AI shouldn't use this component if it can't afford at least some upgrades right away
		modifier = {
			factor = 0.0
			no_resource_for_component = { RESOURCE = volatile_motes }
		}
		modifier = {
			factor = @cosmic_storm_shroud_ai_weight_factor
			has_country_flag = affected_by_shroud_storm
		}
	}
}

# large
weapon_component_template = {
	key = LARGE_ESC_MASS_DRIVER_7
	size = large
	icon = GFX_esc_mass_driver_7
	icon_frame = 1
	type = instant

	damage = { min = 158 max = 378 }
	windup = { min = 5 max = 20 }
	total_fire_time = 30
	range = @ESC_WEAPON_RANGE_L_4
	min_range = @ESC_WEAPON_MIN_RANGE_4
	accuracy = 0.75
	power = -90

	inline_script = {
		script = component_costs/shorthands/esc_inlines_standard_cost
		COMPONENT_TYPE = WEAPON
		SIZE = l
		TIER = 7
		STRATEGIC_RESOURCE_TYPE = volatile_motes
	}

	hull_damage = @ESC_WEAPON_mass_driver_hull_damage
	armor_penetration = @ESC_WEAPON_mass_driver_armor_penetration
	armor_damage = @ESC_WEAPON_mass_driver_armor_damage
	shield_penetration = @ESC_WEAPON_mass_driver_shield_penetration
	shield_damage = @ESC_WEAPON_mass_driver_shield_damage
	tracking = 0.05

	prerequisites = { "esc_tech_mass_driver_7" }
	component_set = ESC_MASS_DRIVER_7
	projectile_gfx = "gauss_cannon_l"
	tags = { weapon_type_kinetic l_slot }
	ai_tags = { weapon_role_anti_shield gunship }

	inline_script = {
		script = ship_components_general/esc_inlines_uses_bio_ships
		EVAL_TARGET = no
	}

	ai_weight = {
		weight = 1
		### AI shouldn't use this component if it can't afford at least some upgrades right away
		modifier = {
			factor = 0.0
			no_resource_for_component = { RESOURCE = volatile_motes }
		}
		modifier = {
			factor = @cosmic_storm_shroud_ai_weight_factor
			has_country_flag = affected_by_shroud_storm
		}
		modifier = {
			factor = @cosmic_storm_gravity_ai_weight_factor
			has_country_flag = affected_by_gravity_storm
		}
	}
}

weapon_component_template = {
	key = LARGE_ESC_BIO_MASS_DRIVER_7
	size = large
	icon = GFX_esc_bio_mass_driver_7
	icon_frame = 1
	type = instant

	damage = { min = 158 max = 378 }
	windup = { min = 5 max = 20 }
	total_fire_time = 30
	range = @ESC_WEAPON_RANGE_L_4
	min_range = @ESC_WEAPON_MIN_RANGE_4
	accuracy = 0.75
	power = -90

	inline_script = {
		script = component_costs/shorthands/esc_inlines_standard_cost
		COMPONENT_TYPE = WEAPON
		SIZE = l
		TIER = 7
		STRATEGIC_RESOURCE_TYPE = volatile_motes
	}

	hull_damage = @ESC_WEAPON_mass_driver_hull_damage
	armor_penetration = @ESC_WEAPON_mass_driver_armor_penetration
	armor_damage = @ESC_WEAPON_mass_driver_armor_damage
	shield_penetration = @ESC_WEAPON_mass_driver_shield_penetration
	shield_damage = @ESC_WEAPON_mass_driver_shield_damage
	tracking = 0.05

	prerequisites = { "esc_tech_mass_driver_7" }
	component_set = ESC_BIO_MASS_DRIVER_7
	projectile_gfx = "gauss_cannon_l"
	tags = { weapon_type_kinetic l_slot }
	ai_tags = { weapon_role_anti_shield gunship }

	inline_script = {
		script = ship_components_general/esc_inlines_uses_bio_ships
		EVAL_TARGET = yes
	}

	ai_weight = {
		weight = 1
		### AI shouldn't use this component if it can't afford at least some upgrades right away
		modifier = {
			factor = 0.0
			no_resource_for_component = { RESOURCE = volatile_motes }
		}
		modifier = {
			factor = @cosmic_storm_shroud_ai_weight_factor
			has_country_flag = affected_by_shroud_storm
		}
		modifier = {
			factor = @cosmic_storm_gravity_ai_weight_factor
			has_country_flag = affected_by_gravity_storm
		}
	}
}

############################################################
##            Improved Stormfire Autocannon               ##
############################################################

# small
weapon_component_template = {
	key = SMALL_ESC_AUTOCANNON_4
	size = small
	icon = GFX_esc_autocannon_4
	icon_frame = 1
	type = instant

	damage = { min = 17 max = 35 }
	windup = { min = 1 max = 4 }
	total_fire_time = 6
	range = @ESC_WEAPON_RANGE_S_1
	accuracy = 0.85
	power = -20

	inline_script = {
		script = component_costs/shorthands/esc_inlines_standard_cost
		COMPONENT_TYPE = WEAPON
		SIZE = s
		TIER = 6
		STRATEGIC_RESOURCE_TYPE = volatile_motes
	}

	hull_damage = @ESC_WEAPON_autocannon_hull_damage
	armor_penetration = @ESC_WEAPON_autocannon_armor_penetration
	armor_damage = @ESC_WEAPON_autocannon_armor_damage
	shield_penetration = @ESC_WEAPON_autocannon_shield_penetration
	shield_damage = @ESC_WEAPON_autocannon_shield_damage
	tracking = 0.75

	prerequisites = { "esc_tech_autocannon_4" }
	component_set = ESC_AUTOCANNON_4
	projectile_gfx = "esc_autocannon_4_small"
	tags = { weapon_type_kinetic s_slot }
	ai_tags = { weapon_role_anti_shield brawler brawler_stealth }
	upgrades_to = SMALL_ESC_AUTOCANNON_5
	military_power_multiplier = @ESC_MILITARY_POWER_MULT_autocannon

	inline_script = {
		script = ship_components_general/esc_inlines_uses_bio_ships
		EVAL_TARGET = no
	}

	ai_weight = {
		weight = 1
		### AI shouldn't use this component if it can't afford at least some upgrades right away
		modifier = {
			factor = 0.0
			no_resource_for_component = { RESOURCE = volatile_motes }
		}
		modifier = {
			factor = @cosmic_storm_shroud_ai_weight_factor
			has_country_flag = affected_by_shroud_storm
		}
	}
}

weapon_component_template = {
	key = SMALL_ESC_BIO_AUTOCANNON_4
	size = small
	icon = GFX_esc_bio_autocannon_4
	icon_frame = 1
	type = instant

	damage = { min = 17 max = 35 }
	windup = { min = 1 max = 4 }
	total_fire_time = 6
	range = @ESC_WEAPON_RANGE_S_1
	accuracy = 0.85
	power = -20

	inline_script = {
		script = component_costs/shorthands/esc_inlines_standard_cost
		COMPONENT_TYPE = WEAPON
		SIZE = s
		TIER = 6
		STRATEGIC_RESOURCE_TYPE = volatile_motes
	}

	hull_damage = @ESC_WEAPON_autocannon_hull_damage
	armor_penetration = @ESC_WEAPON_autocannon_armor_penetration
	armor_damage = @ESC_WEAPON_autocannon_armor_damage
	shield_penetration = @ESC_WEAPON_autocannon_shield_penetration
	shield_damage = @ESC_WEAPON_autocannon_shield_damage
	tracking = 0.75

	prerequisites = { "esc_tech_autocannon_4" }
	component_set = ESC_BIO_AUTOCANNON_4
	projectile_gfx = "esc_autocannon_4_small"
	tags = { weapon_type_kinetic s_slot }
	ai_tags = { weapon_role_anti_shield brawler brawler_stealth }
	upgrades_to = SMALL_ESC_BIO_AUTOCANNON_5
	military_power_multiplier = @ESC_MILITARY_POWER_MULT_autocannon

	inline_script = {
		script = ship_components_general/esc_inlines_uses_bio_ships
		EVAL_TARGET = yes
	}

	ai_weight = {
		weight = 1
		### AI shouldn't use this component if it can't afford at least some upgrades right away
		modifier = {
			factor = 0.0
			no_resource_for_component = { RESOURCE = volatile_motes }
		}
		modifier = {
			factor = @cosmic_storm_shroud_ai_weight_factor
			has_country_flag = affected_by_shroud_storm
		}
	}
}

# medium
weapon_component_template = {
	key = MEDIUM_ESC_AUTOCANNON_4
	size = medium
	icon = GFX_esc_autocannon_4
	icon_frame = 1
	type = instant

	damage = { min = 43 max = 88 }
	windup = { min = 2 max = 6 }
	total_fire_time = 9
	range = @ESC_WEAPON_RANGE_P_2
	accuracy = 0.85
	power = -34

	inline_script = {
		script = component_costs/shorthands/esc_inlines_standard_cost
		COMPONENT_TYPE = WEAPON
		SIZE = m
		TIER = 6
		STRATEGIC_RESOURCE_TYPE = volatile_motes
	}

	hull_damage = @ESC_WEAPON_autocannon_hull_damage
	armor_penetration = @ESC_WEAPON_autocannon_armor_penetration
	armor_damage = @ESC_WEAPON_autocannon_armor_damage
	shield_penetration = @ESC_WEAPON_autocannon_shield_penetration
	shield_damage = @ESC_WEAPON_autocannon_shield_damage
	tracking = 0.5

	prerequisites = { "esc_tech_autocannon_4" }
	component_set = ESC_AUTOCANNON_4
	projectile_gfx = "esc_autocannon_4_medium"
	tags = { weapon_type_kinetic m_slot }
	ai_tags = { weapon_role_anti_shield brawler brawler_stealth }
	upgrades_to = MEDIUM_ESC_AUTOCANNON_5
	military_power_multiplier = @ESC_MILITARY_POWER_MULT_autocannon

	inline_script = {
		script = ship_components_general/esc_inlines_uses_bio_ships
		EVAL_TARGET = no
	}

	ai_weight = {
		weight = 1
		### AI shouldn't use this component if it can't afford at least some upgrades right away
		modifier = {
			factor = 0.0
			no_resource_for_component = { RESOURCE = volatile_motes }
		}
		modifier = {
			factor = @cosmic_storm_shroud_ai_weight_factor
			has_country_flag = affected_by_shroud_storm
		}
	}
}

weapon_component_template = {
	key = MEDIUM_ESC_BIO_AUTOCANNON_4
	size = medium
	icon = GFX_esc_bio_autocannon_4
	icon_frame = 1
	type = instant

	damage = { min = 43 max = 88 }
	windup = { min = 2 max = 6 }
	total_fire_time = 9
	range = @ESC_WEAPON_RANGE_P_2
	accuracy = 0.85
	power = -34

	inline_script = {
		script = component_costs/shorthands/esc_inlines_standard_cost
		COMPONENT_TYPE = WEAPON
		SIZE = m
		TIER = 6
		STRATEGIC_RESOURCE_TYPE = volatile_motes
	}

	hull_damage = @ESC_WEAPON_autocannon_hull_damage
	armor_penetration = @ESC_WEAPON_autocannon_armor_penetration
	armor_damage = @ESC_WEAPON_autocannon_armor_damage
	shield_penetration = @ESC_WEAPON_autocannon_shield_penetration
	shield_damage = @ESC_WEAPON_autocannon_shield_damage
	tracking = 0.5

	prerequisites = { "esc_tech_autocannon_4" }
	component_set = ESC_BIO_AUTOCANNON_4
	projectile_gfx = "esc_autocannon_4_medium"
	tags = { weapon_type_kinetic m_slot }
	ai_tags = { weapon_role_anti_shield brawler brawler_stealth }
	upgrades_to = MEDIUM_ESC_BIO_AUTOCANNON_5
	military_power_multiplier = @ESC_MILITARY_POWER_MULT_autocannon

	inline_script = {
		script = ship_components_general/esc_inlines_uses_bio_ships
		EVAL_TARGET = yes
	}

	ai_weight = {
		weight = 1
		### AI shouldn't use this component if it can't afford at least some upgrades right away
		modifier = {
			factor = 0.0
			no_resource_for_component = { RESOURCE = volatile_motes }
		}
		modifier = {
			factor = @cosmic_storm_shroud_ai_weight_factor
			has_country_flag = affected_by_shroud_storm
		}
	}
}

# large
weapon_component_template = {
	key = LARGE_ESC_AUTOCANNON_4
	size = large
	icon = GFX_esc_autocannon_4
	icon_frame = 1
	type = instant

	damage = { min = 102 max = 210 }
	windup = { min = 2 max = 8 }
	total_fire_time = 12
	range = @ESC_WEAPON_RANGE_S_2
	accuracy = 0.85
	power = -64

	inline_script = {
		script = component_costs/shorthands/esc_inlines_standard_cost
		COMPONENT_TYPE = WEAPON
		SIZE = l
		TIER = 6
		STRATEGIC_RESOURCE_TYPE = volatile_motes
	}

	hull_damage = @ESC_WEAPON_autocannon_hull_damage
	armor_penetration = @ESC_WEAPON_autocannon_armor_penetration
	armor_damage = @ESC_WEAPON_autocannon_armor_damage
	shield_penetration = @ESC_WEAPON_autocannon_shield_penetration
	shield_damage = @ESC_WEAPON_autocannon_shield_damage
	tracking = 0.25

	prerequisites = { "esc_tech_autocannon_4" }
	component_set = ESC_AUTOCANNON_4
	projectile_gfx = "esc_autocannon_4_large"
	tags = { weapon_type_kinetic l_slot }
	ai_tags = { weapon_role_anti_shield brawler brawler_stealth }
	upgrades_to = LARGE_ESC_AUTOCANNON_5
	military_power_multiplier = @ESC_MILITARY_POWER_MULT_autocannon

	inline_script = {
		script = ship_components_general/esc_inlines_uses_bio_ships
		EVAL_TARGET = no
	}

	ai_weight = {
		weight = 1
		### AI shouldn't use this component if it can't afford at least some upgrades right away
		modifier = {
			factor = 0.0
			no_resource_for_component = { RESOURCE = volatile_motes }
		}
		modifier = {
			factor = @cosmic_storm_shroud_ai_weight_factor
			has_country_flag = affected_by_shroud_storm
		}
	}
}

weapon_component_template = {
	key = LARGE_ESC_BIO_AUTOCANNON_4
	size = large
	icon = GFX_esc_bio_autocannon_4
	icon_frame = 1
	type = instant

	damage = { min = 102 max = 210 }
	windup = { min = 2 max = 8 }
	total_fire_time = 12
	range = @ESC_WEAPON_RANGE_S_2
	accuracy = 0.85
	power = -64

	inline_script = {
		script = component_costs/shorthands/esc_inlines_standard_cost
		COMPONENT_TYPE = WEAPON
		SIZE = l
		TIER = 6
		STRATEGIC_RESOURCE_TYPE = volatile_motes
	}

	hull_damage = @ESC_WEAPON_autocannon_hull_damage
	armor_penetration = @ESC_WEAPON_autocannon_armor_penetration
	armor_damage = @ESC_WEAPON_autocannon_armor_damage
	shield_penetration = @ESC_WEAPON_autocannon_shield_penetration
	shield_damage = @ESC_WEAPON_autocannon_shield_damage
	tracking = 0.25

	prerequisites = { "esc_tech_autocannon_4" }
	component_set = ESC_BIO_AUTOCANNON_4
	projectile_gfx = "esc_autocannon_4_large"
	tags = { weapon_type_kinetic l_slot }
	ai_tags = { weapon_role_anti_shield brawler brawler_stealth }
	upgrades_to = LARGE_ESC_BIO_AUTOCANNON_5
	military_power_multiplier = @ESC_MILITARY_POWER_MULT_autocannon

	inline_script = {
		script = ship_components_general/esc_inlines_uses_bio_ships
		EVAL_TARGET = yes
	}

	ai_weight = {
		weight = 1
		### AI shouldn't use this component if it can't afford at least some upgrades right away
		modifier = {
			factor = 0.0
			no_resource_for_component = { RESOURCE = volatile_motes }
		}
		modifier = {
			factor = @cosmic_storm_shroud_ai_weight_factor
			has_country_flag = affected_by_shroud_storm
		}
	}
}

############################################################
##                  Shredder Autocannon                   ##
############################################################

# small
weapon_component_template = {
	key = SMALL_ESC_AUTOCANNON_5
	size = small
	icon = GFX_esc_autocannon_5
	icon_frame = 1
	type = instant

	damage = { min = 22 max = 44 }
	windup = { min = 1 max = 4 }
	total_fire_time = 6
	range = @ESC_WEAPON_RANGE_S_1
	accuracy = 0.85
	power = -24

	inline_script = {
		script = component_costs/shorthands/esc_inlines_standard_cost
		COMPONENT_TYPE = WEAPON
		SIZE = s
		TIER = 7
		STRATEGIC_RESOURCE_TYPE = volatile_motes
	}

	hull_damage = @ESC_WEAPON_autocannon_hull_damage
	armor_penetration = @ESC_WEAPON_autocannon_armor_penetration
	armor_damage = @ESC_WEAPON_autocannon_armor_damage
	shield_penetration = @ESC_WEAPON_autocannon_shield_penetration
	shield_damage = @ESC_WEAPON_autocannon_shield_damage
	tracking = 0.75

	prerequisites = { "esc_tech_autocannon_5" }
	component_set = ESC_AUTOCANNON_5
	projectile_gfx = "esc_autocannon_5_small"
	tags = { weapon_type_kinetic s_slot }
	ai_tags = { weapon_role_anti_shield brawler brawler_stealth }
	military_power_multiplier = @ESC_MILITARY_POWER_MULT_autocannon

	inline_script = {